# generated using pymatgen
data_P
_symmetry_space_group_name_H-M   'P 1'
_cell_length_a   3.29991800
_cell_length_b   4.60092600
_cell_length_c   35.23558900
_cell_angle_alpha   90.00000000
_cell_angle_beta   90.00000000
_cell_angle_gamma   90.00000000
_symmetry_Int_Tables_number   1
_chemical_formula_structural   P
_chemical_formula_sum   P4
_cell_volume   534.97062039
_cell_formula_units_Z   4
loop_
 _symmetry_equiv_pos_site_id
 _symmetry_equiv_pos_as_xyz
  1  'x, y, z'
loop_
 _atom_site_type_symbol
 _atom_site_label
 _atom_site_symmetry_multiplicity
 _atom_site_fract_x
 _atom_site_fract_y
 _atom_site_fract_z
 _atom_site_occupancy
  P  P0  1  0.00000000  0.58855700  0.97011200  1
  P  P1  1  0.00000000  0.41144300  0.02988800  1
  P  P2  1  0.50000000  0.08855700  0.02988800  1
  P  P3  1  0.50000000  0.91144300  0.97011200  1
