# generated using pymatgen
data_V2O5
_symmetry_space_group_name_H-M   'P 1'
_cell_length_a   3.61865800
_cell_length_b   4.79729300
_cell_length_c   20.00000000
_cell_angle_alpha   90.00000000
_cell_angle_beta   90.00000000
_cell_angle_gamma   90.00000000
_symmetry_Int_Tables_number   1
_chemical_formula_structural   V2O5
_chemical_formula_sum   'V2 O5'
_cell_volume   347.19525386
_cell_formula_units_Z   1
loop_
 _symmetry_equiv_pos_site_id
 _symmetry_equiv_pos_as_xyz
  1  'x, y, z'
loop_
 _atom_site_type_symbol
 _atom_site_label
 _atom_site_symmetry_multiplicity
 _atom_site_fract_x
 _atom_site_fract_y
 _atom_site_fract_z
 _atom_site_occupancy
  V  V0  1  0.50000000  0.38826700  0.08634521  1
  V  V1  1  -0.00000000  0.61173300  0.20244249  1
  O  O2  1  -0.00000000  0.48828300  0.10502400  1
  O  O3  1  0.50000000  0.51171700  0.18376370  1
  O  O4  1  0.50000000  0.05286700  0.08376229  1
  O  O5  1  0.50000000  0.49873000  -0.00000000  1
  O  O6  1  0.00000000  0.50127000  0.28878770  1
