# generated using pymatgen
data_V2O5
_symmetry_space_group_name_H-M   'P 1'
_cell_length_a   28.94926400
_cell_length_b   38.37834400
_cell_length_c   16.55150800
_cell_angle_alpha   90.00000000
_cell_angle_beta   90.00000000
_cell_angle_gamma   90.00000000
_symmetry_Int_Tables_number   1
_chemical_formula_structural   V2O5
_chemical_formula_sum   'V128 O320'
_cell_volume   18389.13606962
_cell_formula_units_Z   64
loop_
 _symmetry_equiv_pos_site_id
 _symmetry_equiv_pos_as_xyz
  1  'x, y, z'
loop_
 _atom_site_type_symbol
 _atom_site_label
 _atom_site_symmetry_multiplicity
 _atom_site_fract_x
 _atom_site_fract_y
 _atom_site_fract_z
 _atom_site_occupancy
  V  V0  1  0.06250000  0.04853337  0.10433516  1
  V  V1  1  0.06250000  0.17353337  0.10433516  1
  V  V2  1  0.06250000  0.29853337  0.10433516  1
  V  V3  1  0.06250000  0.42353337  0.10433516  1
  V  V4  1  0.06250000  0.54853337  0.10433516  1
  V  V5  1  0.06250000  0.67353337  0.10433516  1
  V  V6  1  0.06250000  0.79853337  0.10433516  1
  V  V7  1  0.06250000  0.92353338  0.10433516  1
  V  V8  1  0.18750000  0.04853337  0.10433516  1
  V  V9  1  0.18750000  0.17353337  0.10433516  1
  V  V10  1  0.18750000  0.29853337  0.10433516  1
  V  V11  1  0.18750000  0.42353337  0.10433516  1
  V  V12  1  0.18750000  0.54853337  0.10433516  1
  V  V13  1  0.18750000  0.67353337  0.10433516  1
  V  V14  1  0.18750000  0.79853337  0.10433516  1
  V  V15  1  0.18750000  0.92353338  0.10433516  1
  V  V16  1  0.31250000  0.04853337  0.10433516  1
  V  V17  1  0.31250000  0.17353337  0.10433516  1
  V  V18  1  0.31250000  0.29853337  0.10433516  1
  V  V19  1  0.31250000  0.42353337  0.10433516  1
  V  V20  1  0.31250000  0.54853337  0.10433516  1
  V  V21  1  0.31250000  0.67353337  0.10433516  1
  V  V22  1  0.31250000  0.79853337  0.10433516  1
  V  V23  1  0.31250000  0.92353338  0.10433516  1
  V  V24  1  0.43750000  0.04853337  0.10433516  1
  V  V25  1  0.43750000  0.17353337  0.10433516  1
  V  V26  1  0.43750000  0.29853337  0.10433516  1
  V  V27  1  0.43750000  0.42353337  0.10433516  1
  V  V28  1  0.43750000  0.54853337  0.10433516  1
  V  V29  1  0.43750000  0.67353337  0.10433516  1
  V  V30  1  0.43750000  0.79853337  0.10433516  1
  V  V31  1  0.43750000  0.92353338  0.10433516  1
  V  V32  1  0.56250000  0.04853337  0.10433516  1
  V  V33  1  0.56250000  0.17353337  0.10433516  1
  V  V34  1  0.56250000  0.29853337  0.10433516  1
  V  V35  1  0.56250000  0.42353337  0.10433516  1
  V  V36  1  0.56250000  0.54853337  0.10433516  1
  V  V37  1  0.56250000  0.67353337  0.10433516  1
  V  V38  1  0.56250000  0.79853337  0.10433516  1
  V  V39  1  0.56250000  0.92353338  0.10433516  1
  V  V40  1  0.68750000  0.04853337  0.10433516  1
  V  V41  1  0.68750000  0.17353337  0.10433516  1
  V  V42  1  0.68750000  0.29853337  0.10433516  1
  V  V43  1  0.68750000  0.42353337  0.10433516  1
  V  V44  1  0.68750000  0.54853337  0.10433516  1
  V  V45  1  0.68750000  0.67353337  0.10433516  1
  V  V46  1  0.68750000  0.79853337  0.10433516  1
  V  V47  1  0.68750000  0.92353338  0.10433516  1
  V  V48  1  0.81250000  0.04853337  0.10433516  1
  V  V49  1  0.81250000  0.17353337  0.10433516  1
  V  V50  1  0.81250000  0.29853337  0.10433516  1
  V  V51  1  0.81250000  0.42353337  0.10433516  1
  V  V52  1  0.81250000  0.54853337  0.10433516  1
  V  V53  1  0.81250000  0.67353337  0.10433516  1
  V  V54  1  0.81250000  0.79853337  0.10433516  1
  V  V55  1  0.81250000  0.92353338  0.10433516  1
  V  V56  1  0.93750000  0.04853337  0.10433516  1
  V  V57  1  0.93750000  0.17353337  0.10433516  1
  V  V58  1  0.93750000  0.29853337  0.10433516  1
  V  V59  1  0.93750000  0.42353337  0.10433516  1
  V  V60  1  0.93750000  0.54853337  0.10433516  1
  V  V61  1  0.93750000  0.67353337  0.10433516  1
  V  V62  1  0.93750000  0.79853337  0.10433516  1
  V  V63  1  0.93750000  0.92353338  0.10433516  1
  V  V64  1  0.00000000  0.07646662  0.24462120  1
  V  V65  1  0.00000000  0.20146662  0.24462120  1
  V  V66  1  0.00000000  0.32646662  0.24462120  1
  V  V67  1  0.00000000  0.45146662  0.24462120  1
  V  V68  1  0.00000000  0.57646663  0.24462120  1
  V  V69  1  0.00000000  0.70146663  0.24462120  1
  V  V70  1  0.00000000  0.82646662  0.24462120  1
  V  V71  1  0.00000000  0.95146663  0.24462120  1
  V  V72  1  0.12500000  0.07646662  0.24462120  1
  V  V73  1  0.12500000  0.20146662  0.24462120  1
  V  V74  1  0.12500000  0.32646662  0.24462120  1
  V  V75  1  0.12500000  0.45146662  0.24462120  1
  V  V76  1  0.12500000  0.57646663  0.24462120  1
  V  V77  1  0.12500000  0.70146663  0.24462120  1
  V  V78  1  0.12500000  0.82646662  0.24462120  1
  V  V79  1  0.12500000  0.95146663  0.24462120  1
  V  V80  1  0.25000000  0.07646662  0.24462120  1
  V  V81  1  0.25000000  0.20146662  0.24462120  1
  V  V82  1  0.25000000  0.32646662  0.24462120  1
  V  V83  1  0.25000000  0.45146662  0.24462120  1
  V  V84  1  0.25000000  0.57646663  0.24462120  1
  V  V85  1  0.25000000  0.70146663  0.24462120  1
  V  V86  1  0.25000000  0.82646662  0.24462120  1
  V  V87  1  0.25000000  0.95146663  0.24462120  1
  V  V88  1  0.37500000  0.07646662  0.24462120  1
  V  V89  1  0.37500000  0.20146662  0.24462120  1
  V  V90  1  0.37500000  0.32646662  0.24462120  1
  V  V91  1  0.37500000  0.45146662  0.24462120  1
  V  V92  1  0.37500000  0.57646663  0.24462120  1
  V  V93  1  0.37500000  0.70146663  0.24462120  1
  V  V94  1  0.37500000  0.82646662  0.24462120  1
  V  V95  1  0.37500000  0.95146663  0.24462120  1
  V  V96  1  0.50000000  0.07646662  0.24462120  1
  V  V97  1  0.50000000  0.20146662  0.24462120  1
  V  V98  1  0.50000000  0.32646662  0.24462120  1
  V  V99  1  0.50000000  0.45146662  0.24462120  1
  V  V100  1  0.50000000  0.57646663  0.24462120  1
  V  V101  1  0.50000000  0.70146663  0.24462120  1
  V  V102  1  0.50000000  0.82646662  0.24462120  1
  V  V103  1  0.50000000  0.95146663  0.24462120  1
  V  V104  1  0.62500000  0.07646662  0.24462120  1
  V  V105  1  0.62500000  0.20146662  0.24462120  1
  V  V106  1  0.62500000  0.32646662  0.24462120  1
  V  V107  1  0.62500000  0.45146662  0.24462120  1
  V  V108  1  0.62500000  0.57646663  0.24462120  1
  V  V109  1  0.62500000  0.70146663  0.24462120  1
  V  V110  1  0.62500000  0.82646662  0.24462120  1
  V  V111  1  0.62500000  0.95146663  0.24462120  1
  V  V112  1  0.75000000  0.07646662  0.24462120  1
  V  V113  1  0.75000000  0.20146662  0.24462120  1
  V  V114  1  0.75000000  0.32646662  0.24462120  1
  V  V115  1  0.75000000  0.45146662  0.24462120  1
  V  V116  1  0.75000000  0.57646663  0.24462120  1
  V  V117  1  0.75000000  0.70146663  0.24462120  1
  V  V118  1  0.75000000  0.82646662  0.24462120  1
  V  V119  1  0.75000000  0.95146663  0.24462120  1
  V  V120  1  0.87500000  0.07646662  0.24462120  1
  V  V121  1  0.87500000  0.20146662  0.24462120  1
  V  V122  1  0.87500000  0.32646662  0.24462120  1
  V  V123  1  0.87500000  0.45146662  0.24462120  1
  V  V124  1  0.87500000  0.57646663  0.24462120  1
  V  V125  1  0.87500000  0.70146663  0.24462120  1
  V  V126  1  0.87500000  0.82646662  0.24462120  1
  V  V127  1  0.87500000  0.95146663  0.24462120  1
  O  O128  1  0.00000000  0.06103538  0.12690566  1
  O  O129  1  0.00000000  0.18603538  0.12690566  1
  O  O130  1  0.00000000  0.31103538  0.12690566  1
  O  O131  1  0.00000000  0.43603537  0.12690566  1
  O  O132  1  0.00000000  0.56103538  0.12690566  1
  O  O133  1  0.00000000  0.68603537  0.12690566  1
  O  O134  1  0.00000000  0.81103537  0.12690566  1
  O  O135  1  0.00000000  0.93603538  0.12690566  1
  O  O136  1  0.12500000  0.06103538  0.12690566  1
  O  O137  1  0.12500000  0.18603538  0.12690566  1
  O  O138  1  0.12500000  0.31103538  0.12690566  1
  O  O139  1  0.12500000  0.43603537  0.12690566  1
  O  O140  1  0.12500000  0.56103538  0.12690566  1
  O  O141  1  0.12500000  0.68603537  0.12690566  1
  O  O142  1  0.12500000  0.81103537  0.12690566  1
  O  O143  1  0.12500000  0.93603538  0.12690566  1
  O  O144  1  0.25000000  0.06103538  0.12690566  1
  O  O145  1  0.25000000  0.18603538  0.12690566  1
  O  O146  1  0.25000000  0.31103538  0.12690566  1
  O  O147  1  0.25000000  0.43603537  0.12690566  1
  O  O148  1  0.25000000  0.56103538  0.12690566  1
  O  O149  1  0.25000000  0.68603537  0.12690566  1
  O  O150  1  0.25000000  0.81103537  0.12690566  1
  O  O151  1  0.25000000  0.93603538  0.12690566  1
  O  O152  1  0.37500000  0.06103538  0.12690566  1
  O  O153  1  0.37500000  0.18603538  0.12690566  1
  O  O154  1  0.37500000  0.31103538  0.12690566  1
  O  O155  1  0.37500000  0.43603537  0.12690566  1
  O  O156  1  0.37500000  0.56103538  0.12690566  1
  O  O157  1  0.37500000  0.68603537  0.12690566  1
  O  O158  1  0.37500000  0.81103537  0.12690566  1
  O  O159  1  0.37500000  0.93603538  0.12690566  1
  O  O160  1  0.50000000  0.06103538  0.12690566  1
  O  O161  1  0.50000000  0.18603538  0.12690566  1
  O  O162  1  0.50000000  0.31103538  0.12690566  1
  O  O163  1  0.50000000  0.43603537  0.12690566  1
  O  O164  1  0.50000000  0.56103538  0.12690566  1
  O  O165  1  0.50000000  0.68603537  0.12690566  1
  O  O166  1  0.50000000  0.81103537  0.12690566  1
  O  O167  1  0.50000000  0.93603538  0.12690566  1
  O  O168  1  0.62500000  0.06103538  0.12690566  1
  O  O169  1  0.62500000  0.18603538  0.12690566  1
  O  O170  1  0.62500000  0.31103538  0.12690566  1
  O  O171  1  0.62500000  0.43603537  0.12690566  1
  O  O172  1  0.62500000  0.56103538  0.12690566  1
  O  O173  1  0.62500000  0.68603537  0.12690566  1
  O  O174  1  0.62500000  0.81103537  0.12690566  1
  O  O175  1  0.62500000  0.93603538  0.12690566  1
  O  O176  1  0.75000000  0.06103538  0.12690566  1
  O  O177  1  0.75000000  0.18603538  0.12690566  1
  O  O178  1  0.75000000  0.31103538  0.12690566  1
  O  O179  1  0.75000000  0.43603537  0.12690566  1
  O  O180  1  0.75000000  0.56103538  0.12690566  1
  O  O181  1  0.75000000  0.68603537  0.12690566  1
  O  O182  1  0.75000000  0.81103537  0.12690566  1
  O  O183  1  0.75000000  0.93603538  0.12690566  1
  O  O184  1  0.87500000  0.06103538  0.12690566  1
  O  O185  1  0.87500000  0.18603538  0.12690566  1
  O  O186  1  0.87500000  0.31103538  0.12690566  1
  O  O187  1  0.87500000  0.43603537  0.12690566  1
  O  O188  1  0.87500000  0.56103538  0.12690566  1
  O  O189  1  0.87500000  0.68603537  0.12690566  1
  O  O190  1  0.87500000  0.81103537  0.12690566  1
  O  O191  1  0.87500000  0.93603538  0.12690566  1
  O  O192  1  0.06250000  0.06396462  0.22205070  1
  O  O193  1  0.06250000  0.18896462  0.22205070  1
  O  O194  1  0.06250000  0.31396462  0.22205070  1
  O  O195  1  0.06250000  0.43896462  0.22205070  1
  O  O196  1  0.06250000  0.56396462  0.22205070  1
  O  O197  1  0.06250000  0.68896462  0.22205070  1
  O  O198  1  0.06250000  0.81396462  0.22205070  1
  O  O199  1  0.06250000  0.93896462  0.22205070  1
  O  O200  1  0.18750000  0.06396462  0.22205070  1
  O  O201  1  0.18750000  0.18896462  0.22205070  1
  O  O202  1  0.18750000  0.31396462  0.22205070  1
  O  O203  1  0.18750000  0.43896462  0.22205070  1
  O  O204  1  0.18750000  0.56396462  0.22205070  1
  O  O205  1  0.18750000  0.68896462  0.22205070  1
  O  O206  1  0.18750000  0.81396462  0.22205070  1
  O  O207  1  0.18750000  0.93896462  0.22205070  1
  O  O208  1  0.31250000  0.06396462  0.22205070  1
  O  O209  1  0.31250000  0.18896462  0.22205070  1
  O  O210  1  0.31250000  0.31396462  0.22205070  1
  O  O211  1  0.31250000  0.43896462  0.22205070  1
  O  O212  1  0.31250000  0.56396462  0.22205070  1
  O  O213  1  0.31250000  0.68896462  0.22205070  1
  O  O214  1  0.31250000  0.81396462  0.22205070  1
  O  O215  1  0.31250000  0.93896462  0.22205070  1
  O  O216  1  0.43750000  0.06396462  0.22205070  1
  O  O217  1  0.43750000  0.18896462  0.22205070  1
  O  O218  1  0.43750000  0.31396462  0.22205070  1
  O  O219  1  0.43750000  0.43896462  0.22205070  1
  O  O220  1  0.43750000  0.56396462  0.22205070  1
  O  O221  1  0.43750000  0.68896462  0.22205070  1
  O  O222  1  0.43750000  0.81396462  0.22205070  1
  O  O223  1  0.43750000  0.93896462  0.22205070  1
  O  O224  1  0.56250000  0.06396462  0.22205070  1
  O  O225  1  0.56250000  0.18896462  0.22205070  1
  O  O226  1  0.56250000  0.31396462  0.22205070  1
  O  O227  1  0.56250000  0.43896462  0.22205070  1
  O  O228  1  0.56250000  0.56396462  0.22205070  1
  O  O229  1  0.56250000  0.68896462  0.22205070  1
  O  O230  1  0.56250000  0.81396462  0.22205070  1
  O  O231  1  0.56250000  0.93896462  0.22205070  1
  O  O232  1  0.68750000  0.06396462  0.22205070  1
  O  O233  1  0.68750000  0.18896462  0.22205070  1
  O  O234  1  0.68750000  0.31396462  0.22205070  1
  O  O235  1  0.68750000  0.43896462  0.22205070  1
  O  O236  1  0.68750000  0.56396462  0.22205070  1
  O  O237  1  0.68750000  0.68896462  0.22205070  1
  O  O238  1  0.68750000  0.81396462  0.22205070  1
  O  O239  1  0.68750000  0.93896462  0.22205070  1
  O  O240  1  0.81250000  0.06396462  0.22205070  1
  O  O241  1  0.81250000  0.18896462  0.22205070  1
  O  O242  1  0.81250000  0.31396462  0.22205070  1
  O  O243  1  0.81250000  0.43896462  0.22205070  1
  O  O244  1  0.81250000  0.56396462  0.22205070  1
  O  O245  1  0.81250000  0.68896462  0.22205070  1
  O  O246  1  0.81250000  0.81396462  0.22205070  1
  O  O247  1  0.81250000  0.93896462  0.22205070  1
  O  O248  1  0.93750000  0.06396462  0.22205070  1
  O  O249  1  0.93750000  0.18896462  0.22205070  1
  O  O250  1  0.93750000  0.31396462  0.22205070  1
  O  O251  1  0.93750000  0.43896462  0.22205070  1
  O  O252  1  0.93750000  0.56396462  0.22205070  1
  O  O253  1  0.93750000  0.68896462  0.22205070  1
  O  O254  1  0.93750000  0.81396462  0.22205070  1
  O  O255  1  0.93750000  0.93896462  0.22205070  1
  O  O256  1  0.06250000  0.00660837  0.10121409  1
  O  O257  1  0.06250000  0.13160837  0.10121409  1
  O  O258  1  0.06250000  0.25660837  0.10121409  1
  O  O259  1  0.06250000  0.38160837  0.10121409  1
  O  O260  1  0.06250000  0.50660837  0.10121409  1
  O  O261  1  0.06250000  0.63160837  0.10121409  1
  O  O262  1  0.06250000  0.75660837  0.10121409  1
  O  O263  1  0.06250000  0.88160837  0.10121409  1
  O  O264  1  0.18750000  0.00660837  0.10121409  1
  O  O265  1  0.18750000  0.13160837  0.10121409  1
  O  O266  1  0.18750000  0.25660837  0.10121409  1
  O  O267  1  0.18750000  0.38160837  0.10121409  1
  O  O268  1  0.18750000  0.50660837  0.10121409  1
  O  O269  1  0.18750000  0.63160837  0.10121409  1
  O  O270  1  0.18750000  0.75660837  0.10121409  1
  O  O271  1  0.18750000  0.88160837  0.10121409  1
  O  O272  1  0.31250000  0.00660837  0.10121409  1
  O  O273  1  0.31250000  0.13160837  0.10121409  1
  O  O274  1  0.31250000  0.25660837  0.10121409  1
  O  O275  1  0.31250000  0.38160837  0.10121409  1
  O  O276  1  0.31250000  0.50660837  0.10121409  1
  O  O277  1  0.31250000  0.63160837  0.10121409  1
  O  O278  1  0.31250000  0.75660837  0.10121409  1
  O  O279  1  0.31250000  0.88160837  0.10121409  1
  O  O280  1  0.43750000  0.00660837  0.10121409  1
  O  O281  1  0.43750000  0.13160837  0.10121409  1
  O  O282  1  0.43750000  0.25660837  0.10121409  1
  O  O283  1  0.43750000  0.38160837  0.10121409  1
  O  O284  1  0.43750000  0.50660837  0.10121409  1
  O  O285  1  0.43750000  0.63160837  0.10121409  1
  O  O286  1  0.43750000  0.75660837  0.10121409  1
  O  O287  1  0.43750000  0.88160837  0.10121409  1
  O  O288  1  0.56250000  0.00660837  0.10121409  1
  O  O289  1  0.56250000  0.13160837  0.10121409  1
  O  O290  1  0.56250000  0.25660837  0.10121409  1
  O  O291  1  0.56250000  0.38160837  0.10121409  1
  O  O292  1  0.56250000  0.50660837  0.10121409  1
  O  O293  1  0.56250000  0.63160837  0.10121409  1
  O  O294  1  0.56250000  0.75660837  0.10121409  1
  O  O295  1  0.56250000  0.88160837  0.10121409  1
  O  O296  1  0.68750000  0.00660837  0.10121409  1
  O  O297  1  0.68750000  0.13160837  0.10121409  1
  O  O298  1  0.68750000  0.25660837  0.10121409  1
  O  O299  1  0.68750000  0.38160837  0.10121409  1
  O  O300  1  0.68750000  0.50660837  0.10121409  1
  O  O301  1  0.68750000  0.63160837  0.10121409  1
  O  O302  1  0.68750000  0.75660837  0.10121409  1
  O  O303  1  0.68750000  0.88160837  0.10121409  1
  O  O304  1  0.81250000  0.00660837  0.10121409  1
  O  O305  1  0.81250000  0.13160837  0.10121409  1
  O  O306  1  0.81250000  0.25660837  0.10121409  1
  O  O307  1  0.81250000  0.38160837  0.10121409  1
  O  O308  1  0.81250000  0.50660837  0.10121409  1
  O  O309  1  0.81250000  0.63160837  0.10121409  1
  O  O310  1  0.81250000  0.75660837  0.10121409  1
  O  O311  1  0.81250000  0.88160837  0.10121409  1
  O  O312  1  0.93750000  0.00660837  0.10121409  1
  O  O313  1  0.93750000  0.13160837  0.10121409  1
  O  O314  1  0.93750000  0.25660837  0.10121409  1
  O  O315  1  0.93750000  0.38160837  0.10121409  1
  O  O316  1  0.93750000  0.50660837  0.10121409  1
  O  O317  1  0.93750000  0.63160837  0.10121409  1
  O  O318  1  0.93750000  0.75660837  0.10121409  1
  O  O319  1  0.93750000  0.88160837  0.10121409  1
  O  O320  1  0.06250000  0.06234125  0.00000000  1
  O  O321  1  0.06250000  0.18734125  0.00000000  1
  O  O322  1  0.06250000  0.31234125  0.00000000  1
  O  O323  1  0.06250000  0.43734125  0.00000000  1
  O  O324  1  0.06250000  0.56234125  0.00000000  1
  O  O325  1  0.06250000  0.68734125  0.00000000  1
  O  O326  1  0.06250000  0.81234125  0.00000000  1
  O  O327  1  0.06250000  0.93734125  0.00000000  1
  O  O328  1  0.18750000  0.06234125  0.00000000  1
  O  O329  1  0.18750000  0.18734125  0.00000000  1
  O  O330  1  0.18750000  0.31234125  0.00000000  1
  O  O331  1  0.18750000  0.43734125  0.00000000  1
  O  O332  1  0.18750000  0.56234125  0.00000000  1
  O  O333  1  0.18750000  0.68734125  0.00000000  1
  O  O334  1  0.18750000  0.81234125  0.00000000  1
  O  O335  1  0.18750000  0.93734125  0.00000000  1
  O  O336  1  0.31250000  0.06234125  0.00000000  1
  O  O337  1  0.31250000  0.18734125  0.00000000  1
  O  O338  1  0.31250000  0.31234125  0.00000000  1
  O  O339  1  0.31250000  0.43734125  0.00000000  1
  O  O340  1  0.31250000  0.56234125  0.00000000  1
  O  O341  1  0.31250000  0.68734125  0.00000000  1
  O  O342  1  0.31250000  0.81234125  0.00000000  1
  O  O343  1  0.31250000  0.93734125  0.00000000  1
  O  O344  1  0.43750000  0.06234125  0.00000000  1
  O  O345  1  0.43750000  0.18734125  0.00000000  1
  O  O346  1  0.43750000  0.31234125  0.00000000  1
  O  O347  1  0.43750000  0.43734125  0.00000000  1
  O  O348  1  0.43750000  0.56234125  0.00000000  1
  O  O349  1  0.43750000  0.68734125  0.00000000  1
  O  O350  1  0.43750000  0.81234125  0.00000000  1
  O  O351  1  0.43750000  0.93734125  0.00000000  1
  O  O352  1  0.56250000  0.06234125  0.00000000  1
  O  O353  1  0.56250000  0.18734125  0.00000000  1
  O  O354  1  0.56250000  0.31234125  0.00000000  1
  O  O355  1  0.56250000  0.43734125  0.00000000  1
  O  O356  1  0.56250000  0.56234125  0.00000000  1
  O  O357  1  0.56250000  0.68734125  0.00000000  1
  O  O358  1  0.56250000  0.81234125  0.00000000  1
  O  O359  1  0.56250000  0.93734125  0.00000000  1
  O  O360  1  0.68750000  0.06234125  0.00000000  1
  O  O361  1  0.68750000  0.18734125  0.00000000  1
  O  O362  1  0.68750000  0.31234125  0.00000000  1
  O  O363  1  0.68750000  0.43734125  0.00000000  1
  O  O364  1  0.68750000  0.56234125  0.00000000  1
  O  O365  1  0.68750000  0.68734125  0.00000000  1
  O  O366  1  0.68750000  0.81234125  0.00000000  1
  O  O367  1  0.68750000  0.93734125  0.00000000  1
  O  O368  1  0.81250000  0.06234125  0.00000000  1
  O  O369  1  0.81250000  0.18734125  0.00000000  1
  O  O370  1  0.81250000  0.31234125  0.00000000  1
  O  O371  1  0.81250000  0.43734125  0.00000000  1
  O  O372  1  0.81250000  0.56234125  0.00000000  1
  O  O373  1  0.81250000  0.68734125  0.00000000  1
  O  O374  1  0.81250000  0.81234125  0.00000000  1
  O  O375  1  0.81250000  0.93734125  0.00000000  1
  O  O376  1  0.93750000  0.06234125  0.00000000  1
  O  O377  1  0.93750000  0.18734125  0.00000000  1
  O  O378  1  0.93750000  0.31234125  0.00000000  1
  O  O379  1  0.93750000  0.43734125  0.00000000  1
  O  O380  1  0.93750000  0.56234125  0.00000000  1
  O  O381  1  0.93750000  0.68734125  0.00000000  1
  O  O382  1  0.93750000  0.81234125  0.00000000  1
  O  O383  1  0.93750000  0.93734125  0.00000000  1
  O  O384  1  0.00000000  0.06265875  0.34895636  1
  O  O385  1  0.00000000  0.18765875  0.34895636  1
  O  O386  1  0.00000000  0.31265875  0.34895636  1
  O  O387  1  0.00000000  0.43765875  0.34895636  1
  O  O388  1  0.00000000  0.56265875  0.34895636  1
  O  O389  1  0.00000000  0.68765875  0.34895636  1
  O  O390  1  0.00000000  0.81265875  0.34895636  1
  O  O391  1  0.00000000  0.93765875  0.34895636  1
  O  O392  1  0.12500000  0.06265875  0.34895636  1
  O  O393  1  0.12500000  0.18765875  0.34895636  1
  O  O394  1  0.12500000  0.31265875  0.34895636  1
  O  O395  1  0.12500000  0.43765875  0.34895636  1
  O  O396  1  0.12500000  0.56265875  0.34895636  1
  O  O397  1  0.12500000  0.68765875  0.34895636  1
  O  O398  1  0.12500000  0.81265875  0.34895636  1
  O  O399  1  0.12500000  0.93765875  0.34895636  1
  O  O400  1  0.25000000  0.06265875  0.34895636  1
  O  O401  1  0.25000000  0.18765875  0.34895636  1
  O  O402  1  0.25000000  0.31265875  0.34895636  1
  O  O403  1  0.25000000  0.43765875  0.34895636  1
  O  O404  1  0.25000000  0.56265875  0.34895636  1
  O  O405  1  0.25000000  0.68765875  0.34895636  1
  O  O406  1  0.25000000  0.81265875  0.34895636  1
  O  O407  1  0.25000000  0.93765875  0.34895636  1
  O  O408  1  0.37500000  0.06265875  0.34895636  1
  O  O409  1  0.37500000  0.18765875  0.34895636  1
  O  O410  1  0.37500000  0.31265875  0.34895636  1
  O  O411  1  0.37500000  0.43765875  0.34895636  1
  O  O412  1  0.37500000  0.56265875  0.34895636  1
  O  O413  1  0.37500000  0.68765875  0.34895636  1
  O  O414  1  0.37500000  0.81265875  0.34895636  1
  O  O415  1  0.37500000  0.93765875  0.34895636  1
  O  O416  1  0.50000000  0.06265875  0.34895636  1
  O  O417  1  0.50000000  0.18765875  0.34895636  1
  O  O418  1  0.50000000  0.31265875  0.34895636  1
  O  O419  1  0.50000000  0.43765875  0.34895636  1
  O  O420  1  0.50000000  0.56265875  0.34895636  1
  O  O421  1  0.50000000  0.68765875  0.34895636  1
  O  O422  1  0.50000000  0.81265875  0.34895636  1
  O  O423  1  0.50000000  0.93765875  0.34895636  1
  O  O424  1  0.62500000  0.06265875  0.34895636  1
  O  O425  1  0.62500000  0.18765875  0.34895636  1
  O  O426  1  0.62500000  0.31265875  0.34895636  1
  O  O427  1  0.62500000  0.43765875  0.34895636  1
  O  O428  1  0.62500000  0.56265875  0.34895636  1
  O  O429  1  0.62500000  0.68765875  0.34895636  1
  O  O430  1  0.62500000  0.81265875  0.34895636  1
  O  O431  1  0.62500000  0.93765875  0.34895636  1
  O  O432  1  0.75000000  0.06265875  0.34895636  1
  O  O433  1  0.75000000  0.18765875  0.34895636  1
  O  O434  1  0.75000000  0.31265875  0.34895636  1
  O  O435  1  0.75000000  0.43765875  0.34895636  1
  O  O436  1  0.75000000  0.56265875  0.34895636  1
  O  O437  1  0.75000000  0.68765875  0.34895636  1
  O  O438  1  0.75000000  0.81265875  0.34895636  1
  O  O439  1  0.75000000  0.93765875  0.34895636  1
  O  O440  1  0.87500000  0.06265875  0.34895636  1
  O  O441  1  0.87500000  0.18765875  0.34895636  1
  O  O442  1  0.87500000  0.31265875  0.34895636  1
  O  O443  1  0.87500000  0.43765875  0.34895636  1
  O  O444  1  0.87500000  0.56265875  0.34895636  1
  O  O445  1  0.87500000  0.68765875  0.34895636  1
  O  O446  1  0.87500000  0.81265875  0.34895636  1
  O  O447  1  0.87500000  0.93765875  0.34895636  1
