# generated using pymatgen
data_V2O5
_symmetry_space_group_name_H-M   'P 1'
_cell_length_a   3.61865800
_cell_length_b   11.55150800
_cell_length_c   20.00000000
_cell_angle_alpha   90.00000000
_cell_angle_beta   90.00000000
_cell_angle_gamma   90.00000000
_symmetry_Int_Tables_number   1
_chemical_formula_structural   V2O5
_chemical_formula_sum   'V4 O10'
_cell_volume   836.01913673
_cell_formula_units_Z   2
loop_
 _symmetry_equiv_pos_site_id
 _symmetry_equiv_pos_as_xyz
  1  'x, y, z'
loop_
 _atom_site_type_symbol
 _atom_site_label
 _atom_site_symmetry_multiplicity
 _atom_site_fract_x
 _atom_site_fract_y
 _atom_site_fract_z
 _atom_site_occupancy
  V  V0  1  0.00000000  0.64949600  0.14673312  1
  V  V1  1  0.50000000  0.85050400  0.09313153  1
  V  V2  1  0.50000000  0.14949600  0.09313153  1
  V  V3  1  -0.00000000  0.35050400  0.14673312  1
  O  O4  1  0.50000000  0.68183600  0.12274282  1
  O  O5  1  0.00000000  0.81816400  0.11712183  1
  O  O6  1  -0.00000000  0.18183600  0.11712183  1
  O  O7  1  0.50000000  0.31816400  0.12274282  1
  O  O8  1  -0.00000000  0.35497600  0.22718373  1
  O  O9  1  0.50000000  0.14502400  0.01268092  1
  O  O10  1  0.50000000  0.85497600  0.01268092  1
  O  O11  1  0.50000000  0.00000000  0.11962770  1
  O  O12  1  -0.00000000  0.50000000  0.12023695  1
  O  O13  1  -0.00000000  0.64502400  0.22718373  1
