# generated using pymatgen
data_WSe2
_symmetry_space_group_name_H-M   'P 1'
_cell_length_a   19.96241704
_cell_length_b   19.96241704
_cell_length_c   15.06895100
_cell_angle_alpha   90.00000000
_cell_angle_beta   90.00000000
_cell_angle_gamma   120.00000000
_symmetry_Int_Tables_number   1
_chemical_formula_structural   WSe2
_chemical_formula_sum   'W36 Se72'
_cell_volume   5200.43773457
_cell_formula_units_Z   36
loop_
 _symmetry_equiv_pos_site_id
 _symmetry_equiv_pos_as_xyz
  1  'x, y, z'
loop_
 _atom_site_type_symbol
 _atom_site_label
 _atom_site_symmetry_multiplicity
 _atom_site_fract_x
 _atom_site_fract_y
 _atom_site_fract_z
 _atom_site_occupancy
  W  W0  1  0.05555556  0.11111111  0.25000000  1
  W  W1  1  0.05555556  0.27777778  0.25000000  1
  W  W2  1  0.05555556  0.44444444  0.25000000  1
  W  W3  1  0.05555556  0.61111111  0.25000000  1
  W  W4  1  0.05555556  0.77777778  0.25000000  1
  W  W5  1  0.05555556  0.94444444  0.25000000  1
  W  W6  1  0.22222222  0.11111111  0.25000000  1
  W  W7  1  0.22222222  0.27777778  0.25000000  1
  W  W8  1  0.22222222  0.44444444  0.25000000  1
  W  W9  1  0.22222222  0.61111111  0.25000000  1
  W  W10  1  0.22222222  0.77777778  0.25000000  1
  W  W11  1  0.22222222  0.94444444  0.25000000  1
  W  W12  1  0.38888889  0.11111111  0.25000000  1
  W  W13  1  0.38888889  0.27777778  0.25000000  1
  W  W14  1  0.38888889  0.44444444  0.25000000  1
  W  W15  1  0.38888889  0.61111111  0.25000000  1
  W  W16  1  0.38888889  0.77777778  0.25000000  1
  W  W17  1  0.38888889  0.94444444  0.25000000  1
  W  W18  1  0.55555556  0.11111111  0.25000000  1
  W  W19  1  0.55555556  0.27777778  0.25000000  1
  W  W20  1  0.55555556  0.44444444  0.25000000  1
  W  W21  1  0.55555556  0.61111111  0.25000000  1
  W  W22  1  0.55555556  0.77777778  0.25000000  1
  W  W23  1  0.55555556  0.94444444  0.25000000  1
  W  W24  1  0.72222222  0.11111111  0.25000000  1
  W  W25  1  0.72222222  0.27777778  0.25000000  1
  W  W26  1  0.72222222  0.44444444  0.25000000  1
  W  W27  1  0.72222222  0.61111111  0.25000000  1
  W  W28  1  0.72222222  0.77777778  0.25000000  1
  W  W29  1  0.72222222  0.94444444  0.25000000  1
  W  W30  1  0.88888889  0.11111111  0.25000000  1
  W  W31  1  0.88888889  0.27777778  0.25000000  1
  W  W32  1  0.88888889  0.44444444  0.25000000  1
  W  W33  1  0.88888889  0.61111111  0.25000000  1
  W  W34  1  0.88888889  0.77777778  0.25000000  1
  W  W35  1  0.88888889  0.94444444  0.25000000  1
  Se  Se36  1  0.11111111  0.05555556  0.36156900  1
  Se  Se37  1  0.11111111  0.22222222  0.36156900  1
  Se  Se38  1  0.11111111  0.38888889  0.36156900  1
  Se  Se39  1  0.11111111  0.55555556  0.36156900  1
  Se  Se40  1  0.11111111  0.72222222  0.36156900  1
  Se  Se41  1  0.11111111  0.88888889  0.36156900  1
  Se  Se42  1  0.27777778  0.05555556  0.36156900  1
  Se  Se43  1  0.27777778  0.22222222  0.36156900  1
  Se  Se44  1  0.27777778  0.38888889  0.36156900  1
  Se  Se45  1  0.27777778  0.55555556  0.36156900  1
  Se  Se46  1  0.27777778  0.72222222  0.36156900  1
  Se  Se47  1  0.27777778  0.88888889  0.36156900  1
  Se  Se48  1  0.44444444  0.05555556  0.36156900  1
  Se  Se49  1  0.44444444  0.22222222  0.36156900  1
  Se  Se50  1  0.44444444  0.38888889  0.36156900  1
  Se  Se51  1  0.44444444  0.55555556  0.36156900  1
  Se  Se52  1  0.44444444  0.72222222  0.36156900  1
  Se  Se53  1  0.44444444  0.88888889  0.36156900  1
  Se  Se54  1  0.61111111  0.05555556  0.36156900  1
  Se  Se55  1  0.61111111  0.22222222  0.36156900  1
  Se  Se56  1  0.61111111  0.38888889  0.36156900  1
  Se  Se57  1  0.61111111  0.55555556  0.36156900  1
  Se  Se58  1  0.61111111  0.72222222  0.36156900  1
  Se  Se59  1  0.61111111  0.88888889  0.36156900  1
  Se  Se60  1  0.77777778  0.05555556  0.36156900  1
  Se  Se61  1  0.77777778  0.22222222  0.36156900  1
  Se  Se62  1  0.77777778  0.38888889  0.36156900  1
  Se  Se63  1  0.77777778  0.55555556  0.36156900  1
  Se  Se64  1  0.77777778  0.72222222  0.36156900  1
  Se  Se65  1  0.77777778  0.88888889  0.36156900  1
  Se  Se66  1  0.94444444  0.05555556  0.36156900  1
  Se  Se67  1  0.94444444  0.22222222  0.36156900  1
  Se  Se68  1  0.94444444  0.38888889  0.36156900  1
  Se  Se69  1  0.94444444  0.55555556  0.36156900  1
  Se  Se70  1  0.94444444  0.72222222  0.36156900  1
  Se  Se71  1  0.94444444  0.88888889  0.36156900  1
  Se  Se72  1  0.11111111  0.05555556  0.13843100  1
  Se  Se73  1  0.11111111  0.22222222  0.13843100  1
  Se  Se74  1  0.11111111  0.38888889  0.13843100  1
  Se  Se75  1  0.11111111  0.55555556  0.13843100  1
  Se  Se76  1  0.11111111  0.72222222  0.13843100  1
  Se  Se77  1  0.11111111  0.88888889  0.13843100  1
  Se  Se78  1  0.27777778  0.05555556  0.13843100  1
  Se  Se79  1  0.27777778  0.22222222  0.13843100  1
  Se  Se80  1  0.27777778  0.38888889  0.13843100  1
  Se  Se81  1  0.27777778  0.55555556  0.13843100  1
  Se  Se82  1  0.27777778  0.72222222  0.13843100  1
  Se  Se83  1  0.27777778  0.88888889  0.13843100  1
  Se  Se84  1  0.44444444  0.05555556  0.13843100  1
  Se  Se85  1  0.44444444  0.22222222  0.13843100  1
  Se  Se86  1  0.44444444  0.38888889  0.13843100  1
  Se  Se87  1  0.44444444  0.55555556  0.13843100  1
  Se  Se88  1  0.44444444  0.72222222  0.13843100  1
  Se  Se89  1  0.44444444  0.88888889  0.13843100  1
  Se  Se90  1  0.61111111  0.05555556  0.13843100  1
  Se  Se91  1  0.61111111  0.22222222  0.13843100  1
  Se  Se92  1  0.61111111  0.38888889  0.13843100  1
  Se  Se93  1  0.61111111  0.55555556  0.13843100  1
  Se  Se94  1  0.61111111  0.72222222  0.13843100  1
  Se  Se95  1  0.61111111  0.88888889  0.13843100  1
  Se  Se96  1  0.77777778  0.05555556  0.13843100  1
  Se  Se97  1  0.77777778  0.22222222  0.13843100  1
  Se  Se98  1  0.77777778  0.38888889  0.13843100  1
  Se  Se99  1  0.77777778  0.55555556  0.13843100  1
  Se  Se100  1  0.77777778  0.72222222  0.13843100  1
  Se  Se101  1  0.77777778  0.88888889  0.13843100  1
  Se  Se102  1  0.94444444  0.05555556  0.13843100  1
  Se  Se103  1  0.94444444  0.22222222  0.13843100  1
  Se  Se104  1  0.94444444  0.38888889  0.13843100  1
  Se  Se105  1  0.94444444  0.55555556  0.13843100  1
  Se  Se106  1  0.94444444  0.72222222  0.13843100  1
  Se  Se107  1  0.94444444  0.88888889  0.13843100  1
